LAMMPS (12 Dec 2018)
units            real

dimension     3

boundary      p p p

variable       T equal 94.4

variable       P equal 73

lattice          fcc  7

Lattice spacing in x,y,z = 7 7 7
region          box  block -5 5 -5 5 -5 5

create_box    1 box

Created orthogonal box = (-35 -35 -35) to (35 35 35)
create_atoms         1 box

Created 4000 atoms
  Time spent = 0.000718832 secs

mass           1  39.948

pair_style     lj/cut  15

pair_coeff     1  1    0.24   3.4

#Equiberation

velocity        all create $T 14235245 mom yes rot yes dist gaussian

velocity        all create 94.4 14235245 mom yes rot yes dist gaussian

timestep 1
fix NPT all npt temp $T $T 100.0 iso $P $P 1000
fix NPT all npt temp 94.4 $T 100.0 iso $P $P 1000
fix NPT all npt temp 94.4 94.4 100.0 iso $P $P 1000
fix NPT all npt temp 94.4 94.4 100.0 iso 73 $P 1000
fix NPT all npt temp 94.4 94.4 100.0 iso 73 73 1000
thermo_style custom step temp  press density
thermo 100
dump myDump all atom 100 dump.atom
run 10000
  update every 1 steps, delay 10 steps, check yes
Step Temp Press Density
0         94.4     -794.111   0.77358844
Averages over the last 51 of 101 rows, steps 5000 to 10000:
Temp Press Density
94.4599 72.0407 1.36955
Loop time of 130.164 on 1 procs for 10000 steps with 4000 atoms
